Version 4
SHEET 1 880 680
WIRE -336 0 -384 0
WIRE -336 16 -336 0
WIRE 80 64 -32 64
WIRE 320 64 144 64
WIRE -336 112 -336 80
WIRE -128 128 -160 128
WIRE -32 128 -32 64
WIRE -32 128 -48 128
WIRE -16 128 -32 128
WIRE 112 128 64 128
WIRE 208 128 112 128
WIRE 320 144 320 64
WIRE 320 144 272 144
WIRE 400 144 320 144
WIRE 112 160 112 128
WIRE 208 160 192 160
WIRE 400 160 400 144
WIRE -336 176 -336 160
WIRE -336 176 -384 176
WIRE -336 224 -336 176
WIRE 192 224 192 160
WIRE 320 224 320 144
WIRE 320 224 192 224
WIRE 112 272 112 224
WIRE 112 272 -144 272
WIRE 192 272 192 224
WIRE 192 272 112 272
WIRE 400 288 400 240
WIRE 400 288 320 288
WIRE 400 304 400 288
FLAG 240 176 vcc
FLAG 240 112 vee
FLAG 400 304 0
FLAG -384 0 vcc
FLAG -384 176 vee
FLAG -336 224 0
DATAFLAG 400 144 ""
SYMBOL cap 80 80 R270
WINDOW 0 32 32 VTop 2
WINDOW 3 0 32 VBottom 2
SYMATTR InstName C1
SYMATTR Value 680n
SYMBOL res -32 144 R270
WINDOW 0 32 56 VTop 2
WINDOW 3 0 56 VBottom 2
SYMATTR InstName R1
SYMATTR Value 18k
SYMBOL res -144 144 R270
WINDOW 0 32 56 VTop 2
WINDOW 3 0 56 VBottom 2
SYMATTR InstName R2
SYMATTR Value 68k
SYMBOL cap 96 160 R0
SYMATTR InstName C3
SYMATTR Value 100n
SYMBOL EXTRA\\ExtraOpamps\\LM324_NS 240 144 M180
WINDOW 3 -46 -101 Left 2
SYMATTR InstName U1
SYMBOL res 384 144 R0
SYMATTR InstName R4
SYMATTR Value 10k
SYMBOL diode -352 16 R0
SYMATTR InstName D1
SYMBOL EXTRA\\DIODES.COM\\ZENER\\LIB\\zener 336 288 R180
WINDOW 3 24 -21 Left 2
SYMATTR InstName X1
SYMBOL MiniSyms4\\battery- -336 144 R0
WINDOW 123 0 0 Left 2
WINDOW 39 0 0 Left 2
SYMATTR Value 5
SYMATTR InstName V1
